0,   100.00, 33, 0, 0, 60.00     / PSS(R)E 33 RAW created by rawd33  MON, SEP 25 2023   3:01
GRID OPTIMIZATION COMPETITION
INPUT DATA FILES ARE RAW ROP INL CON
     1,'            ', 138.0000,1,   1,   1,   1,1.02302, -33.6062,1.10000,0.90000,1.10000,0.90000
     2,'            ',  69.0000,1,   1,   1,   1,1.03181, -36.7856,1.10000,0.90000,1.10000,0.90000
     3,'            ', 138.0000,1,   1,   1,   1,1.02239, -33.6501,1.10000,0.90000,1.10000,0.90000
     4,'            ',  69.0000,1,   1,   1,   1,1.03253, -39.4073,1.10000,0.90000,1.10000,0.90000
     5,'            ',  69.0000,1,   1,   1,   1,1.03123, -39.1491,1.10000,0.90000,1.10000,0.90000
     6,'            ',  69.0000,1,   1,   1,   1,1.01256, -39.3488,1.10000,0.90000,1.10000,0.90000
     7,'            ', 138.0000,1,   1,   1,   1,1.00954, -35.1060,1.10000,0.90000,1.10000,0.90000
     8,'            ',  69.0000,1,   1,   1,   1,1.03950, -40.9658,1.10000,0.90000,1.10000,0.90000
     9,'            ', 138.0000,1,   1,   1,   1,1.00856, -35.2196,1.10000,0.90000,1.10000,0.90000
    10,'            ',  69.0000,1,   1,   1,   1,1.02457, -39.5222,1.10000,0.90000,1.10000,0.90000
    11,'            ', 138.0000,1,   1,   1,   1,1.00793, -35.2866,1.10000,0.90000,1.10000,0.90000
    12,'            ', 138.0000,1,   1,   1,   1,1.01006, -35.3536,1.10000,0.90000,1.10000,0.90000
    13,'            ',  69.0000,1,   1,   1,   1,1.01247, -39.8589,1.10000,0.90000,1.10000,0.90000
    14,'            ', 138.0000,1,   1,   1,   1,1.01015, -35.3273,1.10000,0.90000,1.10000,0.90000
    15,'            ', 138.0000,1,   1,   1,   1,1.00989, -35.3994,1.10000,0.90000,1.10000,0.90000
    16,'            ',  69.0000,1,   1,   1,   1,1.03684, -37.1822,1.10000,0.90000,1.10000,0.90000
    17,'            ',  69.0000,1,   1,   1,   1,1.00079, -38.3692,1.10000,0.90000,1.10000,0.90000
    18,'            ',  69.0000,1,   1,   1,   1,1.01640, -38.2817,1.10000,0.90000,1.10000,0.90000
    19,'            ',  69.0000,1,   1,   1,   1,1.01631, -38.2952,1.10000,0.90000,1.10000,0.90000
    20,'            ', 138.0000,1,   1,   1,   1,1.01289, -34.7409,1.10000,0.90000,1.10000,0.90000
    21,'            ',  69.0000,1,   1,   1,   1,1.04074, -37.9190,1.10000,0.90000,1.10000,0.90000
    22,'            ', 138.0000,1,   1,   1,   1,1.01404, -34.6358,1.10000,0.90000,1.10000,0.90000
    23,'            ',  69.0000,1,   1,   1,   1,1.03009, -37.5892,1.10000,0.90000,1.10000,0.90000
    24,'            ',  69.0000,1,   1,   1,   1,1.02410, -36.8626,1.10000,0.90000,1.10000,0.90000
    25,'            ',  69.0000,1,   1,   1,   1,1.02400, -36.8772,1.10000,0.90000,1.10000,0.90000
    26,'            ', 138.0000,1,   1,   1,   1,1.01080, -34.7731,1.10000,0.90000,1.10000,0.90000
    27,'            ',  69.0000,1,   1,   1,   1,1.02947, -38.0393,1.10000,0.90000,1.10000,0.90000
    28,'            ', 138.0000,1,   1,   1,   1,1.01078, -34.7496,1.10000,0.90000,1.10000,0.90000
    29,'            ',  69.0000,1,   1,   1,   1,1.03924, -35.7366,1.10000,0.90000,1.10000,0.90000
    30,'            ', 138.0000,1,   1,   1,   1,1.01464, -34.7003,1.10000,0.90000,1.10000,0.90000
    31,'            ', 138.0000,1,   1,   1,   1,1.01211, -34.7905,1.10000,0.90000,1.10000,0.90000
    32,'            ',  69.0000,1,   1,   1,   1,1.00760, -37.1096,1.10000,0.90000,1.10000,0.90000
    33,'            ', 138.0000,1,   1,   1,   1,1.01173, -34.8348,1.10000,0.90000,1.10000,0.90000
    34,'            ', 138.0000,1,   1,   1,   1,1.01593, -33.6856,1.10000,0.90000,1.10000,0.90000
    35,'            ',  69.0000,1,   1,   1,   1,1.03564, -37.0440,1.10000,0.90000,1.10000,0.90000
    36,'            ',  69.0000,1,   1,   1,   1,1.04497, -36.1408,1.10000,0.90000,1.10000,0.90000
    37,'            ',  69.0000,1,   1,   1,   1,1.03432, -37.6792,1.10000,0.90000,1.10000,0.90000
    38,'            ',  69.0000,1,   1,   1,   1,1.03531, -38.8796,1.10000,0.90000,1.10000,0.90000
    39,'            ', 138.0000,1,   1,   1,   1,1.01945, -31.7662,1.10000,0.90000,1.10000,0.90000
    40,'            ',  69.0000,1,   1,   1,   1,1.02917, -34.1077,1.10000,0.90000,1.10000,0.90000
    41,'            ',  69.0000,1,   1,   1,   1,1.02037, -36.2001,1.10000,0.90000,1.10000,0.90000
    42,'            ', 138.0000,1,   1,   1,   1,1.01347, -34.8870,1.10000,0.90000,1.10000,0.90000
    43,'            ',  69.0000,1,   1,   1,   1,1.01375, -37.9470,1.10000,0.90000,1.10000,0.90000
    44,'            ', 138.0000,1,   1,   1,   1,1.01270, -34.9381,1.10000,0.90000,1.10000,0.90000
    45,'            ',  69.0000,1,   1,   1,   1,0.99117, -39.0816,1.10000,0.90000,1.10000,0.90000
    46,'            ',  69.0000,1,   1,   1,   1,1.00437, -38.4652,1.10000,0.90000,1.10000,0.90000
    47,'            ', 345.0000,1,   1,   1,   1,1.03216, -27.0102,1.10000,0.90000,1.10000,0.90000
    48,'            ', 138.0000,1,   1,   1,   1,1.04584, -28.6856,1.10000,0.90000,1.10000,0.90000
    49,'            ',  69.0000,1,   1,   1,   1,1.04657, -31.4644,1.10000,0.90000,1.10000,0.90000
    50,'            ', 345.0000,1,   1,   1,   1,1.03181, -27.0378,1.10000,0.90000,1.10000,0.90000
    51,'            ',  69.0000,1,   1,   1,   1,1.01035, -35.2768,1.10000,0.90000,1.10000,0.90000
    52,'            ', 345.0000,1,   1,   1,   1,1.03354, -28.3565,1.10000,0.90000,1.10000,0.90000
    53,'            ', 138.0000,1,   1,   1,   1,1.02389, -31.9908,1.10000,0.90000,1.10000,0.90000
    54,'            ', 345.0000,1,   1,   1,   1,1.03303, -28.4071,1.10000,0.90000,1.10000,0.90000
    55,'            ', 138.0000,1,   1,   1,   1,1.03752, -29.4830,1.10000,0.90000,1.10000,0.90000
    56,'            ',  69.0000,1,   1,   1,   1,1.03877, -33.4083,1.10000,0.90000,1.10000,0.90000
    57,'            ', 138.0000,1,   1,   1,   1,1.03732, -29.5123,1.10000,0.90000,1.10000,0.90000
    58,'            ',  69.0000,1,   1,   1,   1,1.03066, -34.7106,1.10000,0.90000,1.10000,0.90000
    59,'            ',  69.0000,1,   1,   1,   1,1.04189, -30.2832,1.10000,0.90000,1.10000,0.90000
    60,'            ',  69.0000,1,   1,   1,   1,1.04106, -30.9699,1.10000,0.90000,1.10000,0.90000
    61,'            ',  69.0000,1,   1,   1,   1,1.02885, -33.3420,1.10000,0.90000,1.10000,0.90000
    62,'            ',  69.0000,1,   1,   1,   1,1.04074, -31.8890,1.10000,0.90000,1.10000,0.90000
    63,'            ', 138.0000,1,   1,   1,   1,1.00950, -30.8233,1.10000,0.90000,1.10000,0.90000
    64,'            ',  69.0000,1,   1,   1,   1,1.04318, -32.2915,1.10000,0.90000,1.10000,0.90000
    65,'            ', 138.0000,1,   1,   1,   1,1.00932, -30.8347,1.10000,0.90000,1.10000,0.90000
    66,'            ',  69.0000,1,   1,   1,   1,1.03634, -31.2528,1.10000,0.90000,1.10000,0.90000
    67,'            ', 138.0000,1,   1,   1,   1,1.01707, -29.7472,1.10000,0.90000,1.10000,0.90000
    68,'            ',  69.0000,1,   1,   1,   1,1.05039, -29.9120,1.10000,0.90000,1.10000,0.90000
    69,'            ', 138.0000,1,   1,   1,   1,1.01697, -29.7537,1.10000,0.90000,1.10000,0.90000
    70,'            ',  69.0000,1,   1,   1,   1,1.04490, -30.6901,1.10000,0.90000,1.10000,0.90000
    71,'            ', 138.0000,1,   1,   1,   1,1.02741, -29.6343,1.10000,0.90000,1.10000,0.90000
    72,'            ',  69.0000,1,   1,   1,   1,1.05146, -30.1984,1.10000,0.90000,1.10000,0.90000
    73,'            ', 138.0000,1,   1,   1,   1,1.02725, -29.6497,1.10000,0.90000,1.10000,0.90000
    74,'            ',  69.0000,1,   1,   1,   1,1.03350, -27.4462,1.10000,0.90000,1.10000,0.90000
    75,'            ',  69.0000,1,   1,   1,   1,1.03181, -26.9526,1.10000,0.90000,1.10000,0.90000
    76,'            ', 138.0000,1,   1,   1,   1,1.03213, -27.4265,1.10000,0.90000,1.10000,0.90000
    77,'            ',  69.0000,1,   1,   1,   1,1.03356, -27.0824,1.10000,0.90000,1.10000,0.90000
    78,'            ', 138.0000,1,   1,   1,   1,1.03198, -27.4459,1.10000,0.90000,1.10000,0.90000
    79,'            ', 138.0000,1,   1,   1,   1,1.02937, -27.4675,1.10000,0.90000,1.10000,0.90000
    80,'            ',  69.0000,1,   1,   1,   1,1.04727, -26.8768,1.10000,0.90000,1.10000,0.90000
    81,'            ', 138.0000,1,   1,   1,   1,1.02931, -27.4748,1.10000,0.90000,1.10000,0.90000
    82,'            ',  69.0000,1,   1,   1,   1,1.04733, -27.6418,1.10000,0.90000,1.10000,0.90000
    83,'            ', 138.0000,1,   1,   1,   1,1.02011, -29.2322,1.10000,0.90000,1.10000,0.90000
    84,'            ', 138.0000,1,   1,   1,   1,1.02011, -29.2322,1.10000,0.90000,1.10000,0.90000
    85,'            ', 138.0000,1,   1,   1,   1,1.02011, -29.2322,1.10000,0.90000,1.10000,0.90000
    86,'            ', 138.0000,1,   1,   1,   1,1.01922, -34.0491,1.10000,0.90000,1.10000,0.90000
    87,'            ',  69.0000,1,   1,   1,   1,1.04302, -36.8462,1.10000,0.90000,1.10000,0.90000
    88,'            ', 138.0000,1,   1,   1,   1,1.01882, -34.0921,1.10000,0.90000,1.10000,0.90000
    89,'            ', 138.0000,1,   1,   1,   1,1.02841, -30.0159,1.10000,0.90000,1.10000,0.90000
    90,'            ',  69.0000,1,   1,   1,   1,1.03560, -32.9878,1.10000,0.90000,1.10000,0.90000
    91,'            ', 138.0000,1,   1,   1,   1,1.02798, -30.0743,1.10000,0.90000,1.10000,0.90000
    92,'            ',  69.0000,1,   1,   1,   1,1.02809, -31.9088,1.10000,0.90000,1.10000,0.90000
    93,'            ',  69.0000,1,   1,   1,   1,1.03650, -32.4343,1.10000,0.90000,1.10000,0.90000
    94,'            ',  69.0000,1,   1,   1,   1,1.02710, -32.2336,1.10000,0.90000,1.10000,0.90000
    95,'            ',  69.0000,1,   1,   1,   1,1.04150, -31.7377,1.10000,0.90000,1.10000,0.90000
    96,'            ', 345.0000,1,   1,   1,   1,1.02983, -24.5418,1.10000,0.90000,1.10000,0.90000
    97,'            ', 138.0000,1,   1,   1,   1,1.03499, -28.8282,1.10000,0.90000,1.10000,0.90000
    98,'            ',  69.0000,1,   1,   1,   1,1.04158, -31.7949,1.10000,0.90000,1.10000,0.90000
    99,'            ', 138.0000,1,   1,   1,   1,1.03357, -29.0445,1.10000,0.90000,1.10000,0.90000
   100,'            ', 138.0000,1,   1,   1,   1,1.03045, -30.7120,1.10000,0.90000,1.10000,0.90000
   101,'            ',  69.0000,1,   1,   1,   1,1.04041, -33.5365,1.10000,0.90000,1.10000,0.90000
   102,'            ', 138.0000,1,   1,   1,   1,1.02986, -30.7829,1.10000,0.90000,1.10000,0.90000
   103,'            ',  69.0000,1,   1,   1,   1,1.03626, -32.3069,1.10000,0.90000,1.10000,0.90000
   104,'            ',  69.0000,1,   1,   1,   1,1.03422, -32.7200,1.10000,0.90000,1.10000,0.90000
   105,'            ', 345.0000,1,   1,   1,   1,1.03950, -23.4951,1.10000,0.90000,1.10000,0.90000
   106,'            ', 138.0000,1,   1,   1,   1,1.03407, -26.9771,1.10000,0.90000,1.10000,0.90000
   107,'            ',  69.0000,1,   1,   1,   1,1.04296, -30.4494,1.10000,0.90000,1.10000,0.90000
   108,'            ', 345.0000,1,   1,   1,   1,1.03890, -23.5514,1.10000,0.90000,1.10000,0.90000
   109,'            ',  69.0000,1,   1,   1,   1,1.01822, -33.5317,1.10000,0.90000,1.10000,0.90000
   110,'            ', 138.0000,1,   1,   1,   1,1.03436, -30.5232,1.10000,0.90000,1.10000,0.90000
   111,'            ',  69.0000,1,   1,   1,   1,1.04106, -31.4016,1.10000,0.90000,1.10000,0.90000
   112,'            ', 138.0000,1,   1,   1,   1,1.03390, -30.5787,1.10000,0.90000,1.10000,0.90000
   113,'            ',  69.0000,1,   1,   1,   1,1.02192, -35.0181,1.10000,0.90000,1.10000,0.90000
   114,'            ',  69.0000,1,   1,   1,   1,1.03450, -30.0052,1.10000,0.90000,1.10000,0.90000
   115,'            ',  69.0000,1,   1,   1,   1,1.03406, -32.0093,1.10000,0.90000,1.10000,0.90000
   116,'            ',  69.0000,1,   1,   1,   1,1.03756, -33.2267,1.10000,0.90000,1.10000,0.90000
   117,'            ',  69.0000,1,   1,   1,   1,1.02217, -31.3379,1.10000,0.90000,1.10000,0.90000
   118,'            ',  69.0000,1,   1,   1,   1,1.02557, -32.0559,1.10000,0.90000,1.10000,0.90000
   119,'            ',  69.0000,1,   1,   1,   1,1.02709, -39.2249,1.10000,0.90000,1.10000,0.90000
   120,'            ',  69.0000,1,   1,   1,   1,1.02009, -39.4130,1.10000,0.90000,1.10000,0.90000
   121,'            ', 138.0000,1,   1,   1,   1,0.99097, -37.7860,1.10000,0.90000,1.10000,0.90000
   122,'            ',  69.0000,1,   1,   1,   1,1.02278, -38.3467,1.10000,0.90000,1.10000,0.90000
   123,'            ', 138.0000,1,   1,   1,   1,0.99032, -37.8542,1.10000,0.90000,1.10000,0.90000
   124,'            ', 138.0000,1,   1,   1,   1,0.99477, -38.6359,1.10000,0.90000,1.10000,0.90000
   125,'            ',  69.0000,1,   1,   1,   1,1.00999, -40.1071,1.10000,0.90000,1.10000,0.90000
   126,'            ', 138.0000,1,   1,   1,   1,0.99429, -38.6755,1.10000,0.90000,1.10000,0.90000
   127,'            ',  69.0000,1,   1,   1,   1,1.03252, -37.6693,1.10000,0.90000,1.10000,0.90000
   128,'            ',  69.0000,1,   1,   1,   1,1.03850, -39.7767,1.10000,0.90000,1.10000,0.90000
   129,'            ',  69.0000,1,   1,   1,   1,1.02649, -38.3871,1.10000,0.90000,1.10000,0.90000
   130,'            ',  69.0000,1,   1,   1,   1,1.02608, -38.4463,1.10000,0.90000,1.10000,0.90000
   131,'            ',  69.0000,1,   1,   1,   1,1.03750, -42.5318,1.10000,0.90000,1.10000,0.90000
   132,'            ', 138.0000,1,   1,   1,   1,0.99680, -38.7649,1.10000,0.90000,1.10000,0.90000
   133,'            ',  69.0000,1,   1,   1,   1,1.01264, -41.2627,1.10000,0.90000,1.10000,0.90000
   134,'            ', 138.0000,1,   1,   1,   1,0.99665, -38.6935,1.10000,0.90000,1.10000,0.90000
   135,'            ', 138.0000,1,   1,   1,   1,0.99593, -36.5811,1.10000,0.90000,1.10000,0.90000
   136,'            ',  69.0000,1,   1,   1,   1,1.02936, -39.0052,1.10000,0.90000,1.10000,0.90000
   137,'            ', 138.0000,1,   1,   1,   1,0.99522, -36.6844,1.10000,0.90000,1.10000,0.90000
   138,'            ',  69.0000,1,   1,   1,   1,1.02995, -39.0873,1.10000,0.90000,1.10000,0.90000
   139,'            ', 138.0000,1,   1,   1,   1,0.99157, -37.4783,1.10000,0.90000,1.10000,0.90000
   140,'            ',  69.0000,1,   1,   1,   1,1.00858, -41.0851,1.10000,0.90000,1.10000,0.90000
   141,'            ', 138.0000,1,   1,   1,   1,0.99190, -37.4561,1.10000,0.90000,1.10000,0.90000
   142,'            ', 138.0000,1,   1,   1,   1,0.99639, -36.8836,1.10000,0.90000,1.10000,0.90000
   143,'            ',  69.0000,1,   1,   1,   1,1.02384, -38.7349,1.10000,0.90000,1.10000,0.90000
   144,'            ', 138.0000,1,   1,   1,   1,0.99594, -36.9503,1.10000,0.90000,1.10000,0.90000
   145,'            ',  69.0000,1,   1,   1,   1,1.03083, -38.0920,1.10000,0.90000,1.10000,0.90000
   146,'            ',  69.0000,1,   1,   1,   1,1.03254, -39.7091,1.10000,0.90000,1.10000,0.90000
   147,'            ', 138.0000,1,   1,   1,   1,0.99843, -35.9948,1.10000,0.90000,1.10000,0.90000
   148,'            ',  69.0000,1,   1,   1,   1,1.03140, -38.1582,1.10000,0.90000,1.10000,0.90000
   149,'            ', 138.0000,1,   1,   1,   1,0.99792, -36.0589,1.10000,0.90000,1.10000,0.90000
   150,'            ',  69.0000,1,   1,   1,   1,1.02237, -39.6157,1.10000,0.90000,1.10000,0.90000
   151,'            ', 138.0000,1,   1,   1,   1,1.00230, -36.1592,1.10000,0.90000,1.10000,0.90000
   152,'            ',  69.0000,1,   1,   1,   1,1.03615, -38.8579,1.10000,0.90000,1.10000,0.90000
   153,'            ', 138.0000,1,   1,   1,   1,1.00200, -36.2093,1.10000,0.90000,1.10000,0.90000
   154,'            ',  69.0000,1,   1,   1,   1,1.02030, -39.9306,1.10000,0.90000,1.10000,0.90000
   155,'            ',  69.0000,1,   1,   1,   1,1.03440, -37.2216,1.10000,0.90000,1.10000,0.90000
   156,'            ',  69.0000,1,   1,   1,   1,1.03140, -38.2580,1.10000,0.90000,1.10000,0.90000
   157,'            ', 138.0000,1,   1,   1,   1,1.00841, -34.0570,1.10000,0.90000,1.10000,0.90000
   158,'            ', 138.0000,1,   1,   1,   1,1.01129, -33.6480,1.10000,0.90000,1.10000,0.90000
   159,'            ', 345.0000,1,   1,   1,   1,1.03650, -29.2923,1.10000,0.90000,1.10000,0.90000
   160,'            ', 138.0000,1,   1,   1,   1,1.03064, -31.1076,1.10000,0.90000,1.10000,0.90000
   161,'            ',  69.0000,1,   1,   1,   1,1.03105, -34.6897,1.10000,0.90000,1.10000,0.90000
   162,'            ', 138.0000,1,   1,   1,   1,1.02859, -31.3139,1.10000,0.90000,1.10000,0.90000
   163,'            ',  69.0000,1,   1,   1,   1,1.03659, -36.1314,1.10000,0.90000,1.10000,0.90000
   164,'            ',  69.0000,1,   1,   1,   1,1.02515, -39.6533,1.10000,0.90000,1.10000,0.90000
   165,'            ', 138.0000,1,   1,   1,   1,0.99481, -35.9674,1.10000,0.90000,1.10000,0.90000
   166,'            ',  69.0000,1,   1,   1,   1,1.03388, -38.6061,1.10000,0.90000,1.10000,0.90000
   167,'            ', 138.0000,1,   1,   1,   1,0.99325, -36.0572,1.10000,0.90000,1.10000,0.90000
   168,'            ',  69.0000,1,   1,   1,   1,1.02835, -39.1808,1.10000,0.90000,1.10000,0.90000
   169,'            ',  69.0000,1,   1,   1,   1,1.03550, -39.3506,1.10000,0.90000,1.10000,0.90000
   170,'            ', 138.0000,1,   1,   1,   1,0.99979, -36.4644,1.10000,0.90000,1.10000,0.90000
   171,'            ',  69.0000,1,   1,   1,   1,1.03642, -39.0685,1.10000,0.90000,1.10000,0.90000
   172,'            ', 138.0000,1,   1,   1,   1,0.99938, -36.5099,1.10000,0.90000,1.10000,0.90000
   173,'            ',  69.0000,1,   1,   1,   1,1.04150, -40.0524,1.10000,0.90000,1.10000,0.90000
   174,'            ', 138.0000,1,   1,   1,   1,1.00733, -35.1119,1.10000,0.90000,1.10000,0.90000
   175,'            ',  69.0000,1,   1,   1,   1,1.04227, -37.6986,1.10000,0.90000,1.10000,0.90000
   176,'            ', 138.0000,1,   1,   1,   1,1.00698, -35.1632,1.10000,0.90000,1.10000,0.90000
   177,'            ',  69.0000,1,   1,   1,   1,1.04050, -38.4276,1.10000,0.90000,1.10000,0.90000
   178,'            ',  69.0000,1,   1,   1,   1,1.03350, -36.9372,1.10000,0.90000,1.10000,0.90000
   179,'            ',  69.0000,1,   1,   1,   1,1.03475, -37.7168,1.10000,0.90000,1.10000,0.90000
   180,'            ',  69.0000,1,   1,   1,   1,1.03519, -37.4864,1.10000,0.90000,1.10000,0.90000
   181,'            ', 138.0000,1,   1,   1,   1,1.00348, -36.0216,1.10000,0.90000,1.10000,0.90000
   182,'            ',  69.0000,1,   1,   1,   1,1.02476, -39.2081,1.10000,0.90000,1.10000,0.90000
   183,'            ', 138.0000,1,   1,   1,   1,1.00298, -36.0779,1.10000,0.90000,1.10000,0.90000
   184,'            ',  69.0000,1,   1,   1,   1,1.03062, -38.4019,1.10000,0.90000,1.10000,0.90000
   185,'            ',  69.0000,1,   1,   1,   1,1.02699, -39.1082,1.10000,0.90000,1.10000,0.90000
   186,'            ',  69.0000,1,   1,   1,   1,1.04050, -37.0247,1.10000,0.90000,1.10000,0.90000
   187,'            ',  69.0000,1,   1,   1,   1,1.01514, -39.6585,1.10000,0.90000,1.10000,0.90000
   188,'            ', 138.0000,1,   1,   1,   1,1.03016, -34.7036,1.10000,0.90000,1.10000,0.90000
   189,'            ',  69.0000,1,   1,   1,   1,1.04633, -36.6472,1.10000,0.90000,1.10000,0.90000
   190,'            ', 138.0000,1,   1,   1,   1,1.02984, -34.7440,1.10000,0.90000,1.10000,0.90000
   191,'            ', 138.0000,1,   1,   1,   1,1.00613, -34.4098,1.10000,0.90000,1.10000,0.90000
   192,'            ',  69.0000,1,   1,   1,   1,1.04013, -37.3119,1.10000,0.90000,1.10000,0.90000
   193,'            ', 138.0000,1,   1,   1,   1,1.00788, -34.2184,1.10000,0.90000,1.10000,0.90000
   194,'            ', 138.0000,1,   1,   1,   1,1.00408, -34.8124,1.10000,0.90000,1.10000,0.90000
   195,'            ',  69.0000,1,   1,   1,   1,1.04227, -37.0427,1.10000,0.90000,1.10000,0.90000
   196,'            ', 138.0000,1,   1,   1,   1,1.00383, -34.8491,1.10000,0.90000,1.10000,0.90000
   197,'            ',  69.0000,1,   1,   1,   1,1.03202, -37.2036,1.10000,0.90000,1.10000,0.90000
   198,'            ',  69.0000,1,   1,   1,   1,1.03227, -37.1751,1.10000,0.90000,1.10000,0.90000
   199,'            ',  69.0000,1,   1,   1,   1,1.03950, -36.5299,1.10000,0.90000,1.10000,0.90000
   200,'            ',  69.0000,1,   1,   1,   1,1.02418, -35.1718,1.10000,0.90000,1.10000,0.90000
   201,'            ',  69.0000,1,   1,   1,   1,1.02322, -36.2482,1.10000,0.90000,1.10000,0.90000
   202,'            ', 345.0000,1,   1,   1,   1,1.03107, -29.1294,1.10000,0.90000,1.10000,0.90000
   203,'            ', 138.0000,1,   1,   1,   1,1.02240, -32.3743,1.10000,0.90000,1.10000,0.90000
   204,'            ',  69.0000,1,   1,   1,   1,1.02685, -35.7391,1.10000,0.90000,1.10000,0.90000
   205,'            ', 345.0000,1,   1,   1,   1,1.03187, -29.0026,1.10000,0.90000,1.10000,0.90000
   206,'            ',  69.0000,1,   1,   1,   1,1.04009, -37.3441,1.10000,0.90000,1.10000,0.90000
   207,'            ', 345.0000,1,   1,   1,   1,1.04450, -29.2735,1.10000,0.90000,1.10000,0.90000
   208,'            ', 138.0000,1,   1,   1,   1,1.02641, -33.1334,1.10000,0.90000,1.10000,0.90000
   209,'            ',  69.0000,1,   1,   1,   1,1.01897, -37.4888,1.10000,0.90000,1.10000,0.90000
   210,'            ', 345.0000,1,   1,   1,   1,1.04132, -28.8724,1.10000,0.90000,1.10000,0.90000
   211,'            ', 138.0000,1,   1,   1,   1,1.00258, -35.5735,1.10000,0.90000,1.10000,0.90000
   212,'            ',  69.0000,1,   1,   1,   1,1.03490, -39.6688,1.10000,0.90000,1.10000,0.90000
   213,'            ', 138.0000,1,   1,   1,   1,1.00218, -35.6080,1.10000,0.90000,1.10000,0.90000
   214,'            ',  69.0000,1,   1,   1,   1,1.03242, -40.1611,1.10000,0.90000,1.10000,0.90000
   215,'            ', 138.0000,1,   1,   1,   1,1.00550, -35.7172,1.10000,0.90000,1.10000,0.90000
   216,'            ',  69.0000,1,   1,   1,   1,1.02993, -39.0098,1.10000,0.90000,1.10000,0.90000
   217,'            ', 138.0000,1,   1,   1,   1,1.00480, -35.7954,1.10000,0.90000,1.10000,0.90000
   218,'            ',  69.0000,1,   1,   1,   1,1.03897, -38.0688,1.10000,0.90000,1.10000,0.90000
   219,'            ',  69.0000,1,   1,   1,   1,1.02828, -37.6254,1.10000,0.90000,1.10000,0.90000
   220,'            ', 138.0000,1,   1,   1,   1,1.02488, -31.7441,1.10000,0.90000,1.10000,0.90000
   221,'            ',  69.0000,1,   1,   1,   1,1.03026, -36.6110,1.10000,0.90000,1.10000,0.90000
   222,'            ', 138.0000,1,   1,   1,   1,1.01812, -32.9343,1.10000,0.90000,1.10000,0.90000
   223,'            ',  69.0000,1,   1,   1,   1,1.03975, -35.6558,1.10000,0.90000,1.10000,0.90000
   224,'            ', 138.0000,1,   1,   1,   1,1.01894, -32.7732,1.10000,0.90000,1.10000,0.90000
   225,'            ', 138.0000,1,   1,   1,   1,1.01606, -33.1229,1.10000,0.90000,1.10000,0.90000
   226,'            ',  69.0000,1,   1,   1,   1,1.01363, -36.5279,1.10000,0.90000,1.10000,0.90000
   227,'            ',  69.0000,1,   1,   1,   1,1.02930, -35.3002,1.10000,0.90000,1.10000,0.90000
   228,'            ', 138.0000,1,   1,   1,   1,1.01237, -33.4565,1.10000,0.90000,1.10000,0.90000
   229,'            ',  69.0000,1,   1,   1,   1,1.03588, -36.6126,1.10000,0.90000,1.10000,0.90000
   230,'            ',  69.0000,1,   1,   1,   1,1.04745, -36.5115,1.10000,0.90000,1.10000,0.90000
   231,'            ', 345.0000,1,   1,   1,   1,1.02579, -29.7524,1.10000,0.90000,1.10000,0.90000
   232,'            ', 138.0000,1,   1,   1,   1,1.04494, -33.0668,1.10000,0.90000,1.10000,0.90000
   233,'            ',  69.0000,1,   1,   1,   1,1.04122, -36.1968,1.10000,0.90000,1.10000,0.90000
   234,'            ', 345.0000,1,   1,   1,   1,1.02550, -29.7948,1.10000,0.90000,1.10000,0.90000
   235,'            ', 138.0000,1,   1,   1,   1,1.04135, -33.5610,1.10000,0.90000,1.10000,0.90000
   236,'            ',  69.0000,1,   1,   1,   1,1.05588, -35.9419,1.10000,0.90000,1.10000,0.90000
   237,'            ',  69.0000,1,   1,   1,   1,1.02594, -34.1599,1.10000,0.90000,1.10000,0.90000
   238,'            ',  69.0000,1,   1,   1,   1,1.02754, -35.5799,1.10000,0.90000,1.10000,0.90000
   239,'            ',  69.0000,1,   1,   1,   1,1.04250, -33.8640,1.10000,0.90000,1.10000,0.90000
   240,'            ', 138.0000,1,   1,   1,   1,1.02768, -30.7369,1.10000,0.90000,1.10000,0.90000
   241,'            ',  69.0000,1,   1,   1,   1,1.03200, -33.4303,1.10000,0.90000,1.10000,0.90000
   242,'            ',  69.0000,1,   1,   1,   1,1.03110, -34.7427,1.10000,0.90000,1.10000,0.90000
   243,'            ', 138.0000,1,   1,   1,   1,1.02610, -31.5029,1.10000,0.90000,1.10000,0.90000
   244,'            ',  69.0000,1,   1,   1,   1,1.02821, -33.8557,1.10000,0.90000,1.10000,0.90000
   245,'            ',  69.0000,1,   1,   1,   1,1.04431, -36.2609,1.10000,0.90000,1.10000,0.90000
   246,'            ',  69.0000,1,   1,   1,   1,1.03090, -35.8509,1.10000,0.90000,1.10000,0.90000
   247,'            ', 138.0000,1,   1,   1,   1,1.02927, -31.9233,1.10000,0.90000,1.10000,0.90000
   248,'            ', 138.0000,1,   1,   1,   1,1.03244, -32.7679,1.10000,0.90000,1.10000,0.90000
   249,'            ',  69.0000,1,   1,   1,   1,1.04959, -35.6478,1.10000,0.90000,1.10000,0.90000
   250,'            ', 138.0000,1,   1,   1,   1,1.03206, -32.8366,1.10000,0.90000,1.10000,0.90000
   251,'            ', 138.0000,1,   1,   1,   1,1.02839, -32.4925,1.10000,0.90000,1.10000,0.90000
   252,'            ',  69.0000,1,   1,   1,   1,1.04654, -34.8607,1.10000,0.90000,1.10000,0.90000
   253,'            ', 138.0000,1,   1,   1,   1,1.02789, -32.5563,1.10000,0.90000,1.10000,0.90000
   254,'            ', 138.0000,1,   1,   1,   1,1.02722, -31.2688,1.10000,0.90000,1.10000,0.90000
   255,'            ',  69.0000,1,   1,   1,   1,1.03310, -33.8579,1.10000,0.90000,1.10000,0.90000
   256,'            ', 138.0000,1,   1,   1,   1,1.02753, -31.2572,1.10000,0.90000,1.10000,0.90000
   257,'            ', 345.0000,1,   1,   1,   1,1.03008, -25.7095,1.10000,0.90000,1.10000,0.90000
   258,'            ', 138.0000,1,   1,   1,   1,1.04671, -29.3963,1.10000,0.90000,1.10000,0.90000
   259,'            ', 345.0000,1,   1,   1,   1,1.02966, -25.7521,1.10000,0.90000,1.10000,0.90000
   260,'            ',  69.0000,1,   1,   1,   1,1.04143, -34.4487,1.10000,0.90000,1.10000,0.90000
   261,'            ', 138.0000,1,   1,   1,   1,1.03436, -28.9909,1.10000,0.90000,1.10000,0.90000
   262,'            ',  69.0000,1,   1,   1,   1,1.01987, -32.8410,1.10000,0.90000,1.10000,0.90000
   263,'            ',  69.0000,1,   1,   1,   1,1.02270, -34.2023,1.10000,0.90000,1.10000,0.90000
   264,'            ', 138.0000,1,   1,   1,   1,1.03279, -30.8913,1.10000,0.90000,1.10000,0.90000
   265,'            ',  69.0000,1,   1,   1,   1,1.04658, -33.5657,1.10000,0.90000,1.10000,0.90000
   266,'            ', 138.0000,1,   1,   1,   1,1.03441, -30.7180,1.10000,0.90000,1.10000,0.90000
   267,'            ',  69.0000,1,   1,   1,   1,1.03524, -35.3571,1.10000,0.90000,1.10000,0.90000
   268,'            ', 138.0000,1,   1,   1,   1,1.02525, -31.1449,1.10000,0.90000,1.10000,0.90000
   269,'            ',  69.0000,1,   1,   1,   1,1.02441, -34.4179,1.10000,0.90000,1.10000,0.90000
   270,'            ', 138.0000,1,   1,   1,   1,1.02486, -31.1903,1.10000,0.90000,1.10000,0.90000
   271,'            ',  69.0000,1,   1,   1,   1,1.03337, -33.9714,1.10000,0.90000,1.10000,0.90000
   272,'            ', 138.0000,1,   1,   1,   1,1.02697, -31.7733,1.10000,0.90000,1.10000,0.90000
   273,'            ',  69.0000,1,   1,   1,   1,1.04271, -34.7291,1.10000,0.90000,1.10000,0.90000
   274,'            ', 138.0000,1,   1,   1,   1,1.02651, -31.8187,1.10000,0.90000,1.10000,0.90000
   275,'            ',  69.0000,1,   1,   1,   1,0.99014, -38.8523,1.10000,0.90000,1.10000,0.90000
   276,'            ',  69.0000,1,   1,   1,   1,1.02214, -35.0567,1.10000,0.90000,1.10000,0.90000
   277,'            ',  69.0000,1,   1,   1,   1,1.01867, -33.8170,1.10000,0.90000,1.10000,0.90000
   278,'            ', 345.0000,1,   1,   1,   1,1.03280, -27.2491,1.10000,0.90000,1.10000,0.90000
   279,'            ', 138.0000,1,   1,   1,   1,1.02809, -29.6345,1.10000,0.90000,1.10000,0.90000
   280,'            ',  69.0000,1,   1,   1,   1,1.02497, -33.3918,1.10000,0.90000,1.10000,0.90000
   281,'            ', 138.0000,1,   1,   1,   1,1.02654, -29.9725,1.10000,0.90000,1.10000,0.90000
   282,'            ',  69.0000,1,   1,   1,   1,1.02257, -33.5607,1.10000,0.90000,1.10000,0.90000
   283,'            ',  69.0000,1,   1,   1,   1,1.00066, -37.8140,1.10000,0.90000,1.10000,0.90000
   284,'            ',  69.0000,1,   1,   1,   1,1.03361, -26.8152,1.10000,0.90000,1.10000,0.90000
   285,'            ',  69.0000,1,   1,   1,   1,1.03348, -26.8377,1.10000,0.90000,1.10000,0.90000
   286,'            ',  69.0000,1,   1,   1,   1,1.02862, -26.7048,1.10000,0.90000,1.10000,0.90000
   287,'            ', 138.0000,1,   1,   1,   1,1.03306, -21.4762,1.10000,0.90000,1.10000,0.90000
   288,'            ',  69.0000,1,   1,   1,   1,1.03358, -23.3241,1.10000,0.90000,1.10000,0.90000
   289,'            ', 138.0000,1,   1,   1,   1,1.01046, -21.7661,1.10000,0.90000,1.10000,0.90000
   290,'            ',  69.0000,1,   1,   1,   1,1.04137, -24.0687,1.10000,0.90000,1.10000,0.90000
   291,'            ', 138.0000,1,   1,   1,   1,1.01110, -21.7172,1.10000,0.90000,1.10000,0.90000
   292,'            ', 138.0000,1,   1,   1,   1,1.00824, -19.2430,1.10000,0.90000,1.10000,0.90000
   293,'            ',  69.0000,1,   1,   1,   1,1.02674, -21.8062,1.10000,0.90000,1.10000,0.90000
   294,'            ', 138.0000,1,   1,   1,   1,1.00809, -19.2676,1.10000,0.90000,1.10000,0.90000
   295,'            ', 138.0000,1,   1,   1,   1,1.02313, -22.1254,1.10000,0.90000,1.10000,0.90000
   296,'            ', 138.0000,1,   1,   1,   1,1.03146, -21.8787,1.10000,0.90000,1.10000,0.90000
   297,'            ',  69.0000,1,   1,   1,   1,1.04028, -25.4708,1.10000,0.90000,1.10000,0.90000
   298,'            ', 138.0000,1,   1,   1,   1,1.03108, -21.9206,1.10000,0.90000,1.10000,0.90000